 .Wgn file Subbasin: 6 STATION NAME:441037 11/15/2017 12:00:00 AM ArcSWAT 2012.10_0.14
  LATITUDE =  36.60 LONGITUDE = -82.17
  ELEV [m] = 609.90
  RAIN_YRS =  31.00
  6.95  9.45 14.42 19.41 23.73 27.62 29.09 28.84 25.69 20.26 14.32  8.65
 -3.99 -2.56  0.99  5.39 10.08 14.80 16.93 16.27 12.38  6.07  1.39 -2.63
  5.93  6.12  5.93  5.56  3.97  2.82  2.48  2.56  3.65  4.56  5.53  5.89
  5.96  5.36  5.18  4.71  4.10  2.97  2.27  2.32  4.01  4.90  5.13  5.68
  89.6  88.7  97.4  93.6 107.7  98.8 123.4  87.7  80.9  57.2  79.7  87.2
  6.73  7.63  7.33  6.53  6.88  6.30  7.81  6.69  8.94  6.36  7.63  6.75
  1.83  2.50  2.75  1.93  2.31  1.56  2.30  2.11  2.70  2.09  2.61  2.02
  0.28  0.31  0.33  0.32  0.29  0.33  0.34  0.27  0.21  0.19  0.25  0.28
  0.57  0.59  0.55  0.60  0.65  0.61  0.65  0.58  0.56  0.53  0.57  0.55
 12.34 12.02 13.10 13.43 14.07 13.83 15.30 12.17  9.60  9.01 10.90 11.93
  7.64  7.49 15.79 23.90 28.32 28.25 40.19 32.41 31.17 15.11 15.81  9.89
  7.67 10.94 14.58 19.53 22.63 24.13 23.34 21.12 18.14 13.32  9.43  7.54
 -3.35 -2.40 -0.14  2.82  5.50 17.49 19.71 19.55  6.40  3.69  0.47 -2.28
  2.56  2.61  2.82  2.64  2.16  1.84  1.68  1.48  1.58  1.68  2.05  2.23
