 .Wgn file Subbasin: 3 STATION NAME:153821 11/15/2017 12:00:00 AM ArcSWAT 2012.10_0.14
  LATITUDE =  36.80 LONGITUDE = -88.50
  ELEV [m] = 134.10
  RAIN_YRS =  31.00
  6.54  9.29 14.85 20.70 25.57 30.21 32.05 31.73 27.98 21.71 14.55  8.18
 -3.14 -1.35  3.07  8.13 13.47 18.29 20.47 19.15 14.39  8.21  3.29 -1.68
  6.67  7.10  6.61  5.59  4.18  3.31  2.99  3.10  4.44  5.18  6.10  6.62
  6.65  6.16  5.73  5.55  4.59  3.45  2.92  3.34  4.84  5.59  5.81  6.63
  91.1  98.0 100.8 120.7 120.3 107.1 109.4  63.7  93.1  96.2 110.1 115.1
 14.33 17.24 14.14 15.80 14.67 17.24 20.78 12.98 21.77 16.93 15.36 15.98
  2.80  3.97  3.01  2.99  2.59  2.55  2.67  2.30  4.37  2.09  2.84  2.77
  0.19  0.22  0.25  0.25  0.25  0.23  0.17  0.15  0.16  0.16  0.22  0.21
  0.41  0.37  0.39  0.41  0.45  0.31  0.40  0.32  0.32  0.37  0.42  0.41
  7.45  7.14  8.86  8.86  9.50  7.43  6.90  5.50  5.64  6.43  8.14  8.17
 12.52 14.38 20.43 21.21 36.55 28.70 39.31 43.81 26.35 16.65 26.15 16.53
  6.29  9.72 13.79 17.98 21.24 23.34 22.75 20.45 17.30 13.07  8.67  6.41
 -3.44 -2.26  0.76  3.28  6.10 18.14 20.53 19.73 15.66  4.22  0.82 -2.22
  3.85  3.85  4.07  3.86  3.14  2.65  2.47  2.19  2.39  2.83  3.53  3.63
