 .Wgn file Subbasin: 2 STATION NAME:444068 11/15/2017 12:00:00 AM ArcSWAT 2012.10_0.14
  LATITUDE =  36.82 LONGITUDE = -82.10
  ELEV [m] = 777.80
  RAIN_YRS =  31.00
  7.54  9.97 14.96 19.88 24.34 28.22 29.71 29.51 26.27 20.64 14.73  9.15
 -3.33 -1.83  1.65  6.15 10.87 15.83 18.10 17.32 13.21  6.66  1.76 -2.05
  6.33  6.38  6.29  5.78  4.28  3.13  2.73  2.99  3.97  4.84  5.73  6.16
  5.95  5.45  5.26  4.79  4.21  3.06  2.25  2.43  4.14  5.07  5.34  5.69
  82.8  86.0  90.5  86.1  94.9  96.9 117.0  85.7  72.9  50.7  75.5  81.4
  8.58  9.19  9.38  8.47  9.69  9.61 11.69 11.57 11.46  8.15  9.56  8.13
  2.07  2.13  2.65  2.11  2.61  1.88  1.99  2.45  2.47  2.81  2.04  2.34
  0.26  0.29  0.30  0.29  0.28  0.28  0.28  0.21  0.18  0.16  0.24  0.26
  0.43  0.44  0.40  0.41  0.40  0.43  0.44  0.41  0.41  0.40  0.37  0.42
  9.76  9.70 10.21  9.84  9.79  9.83 10.40  8.00  6.97  6.59  8.14  9.45
  8.73  8.49 16.40 22.99 27.51 29.16 44.28 36.40 32.01 15.35 15.07 10.25
  7.67 10.94 14.58 19.53 22.63 24.13 23.34 21.12 18.14 13.32  9.43  7.54
 -3.35 -2.40 -0.14  2.82  5.50 17.49 19.71 19.55  6.40  3.69  0.47 -2.28
  2.56  2.61  2.82  2.64  2.16  1.84  1.68  1.48  1.58  1.68  2.05  2.23
