 .Wgn file Subbasin: 4 STATION NAME:404858 11/15/2017 12:00:00 AM ArcSWAT 2012.10_0.14
  LATITUDE =  36.52 LONGITUDE = -82.53
  ELEV [m] = 391.40
  RAIN_YRS =  31.00
  8.04 10.70 16.06 21.29 25.50 29.21 30.61 30.35 27.15 21.59 15.49  9.61
 -2.34 -1.03  2.53  7.01 11.78 16.45 18.62 18.10 14.31  7.80  2.85 -0.97
  5.98  6.34  6.26  5.82  4.04  2.94  2.61  2.59  3.71  4.65  5.63  5.92
  5.91  5.47  5.34  4.71  4.16  2.94  2.22  2.30  4.00  5.06  5.30  5.71
  89.8  90.9  95.1  89.1 102.3  88.7 127.5  92.9  76.8  59.9  78.4  86.8
  9.67  9.82  9.67  9.05  9.95  8.80 10.52 12.20 11.25  8.47  9.13  9.30
  2.48  1.88  3.17  2.26  2.35  1.61  1.78  2.32  2.34  2.24  2.39  2.54
  0.26  0.28  0.29  0.29  0.27  0.24  0.28  0.22  0.19  0.18  0.23  0.26
  0.45  0.44  0.46  0.44  0.47  0.48  0.49  0.40  0.41  0.43  0.46  0.43
  9.90  9.34 10.67 10.27 10.50  9.47 11.00  8.23  7.17  7.47  8.97  9.72
  8.09  9.37 16.24 24.17 29.86 29.05 47.86 33.02 29.68 15.02 16.69 11.58
  7.67 10.94 14.58 19.53 22.63 24.13 23.34 21.12 18.14 13.32  9.43  7.54
 -3.35 -2.40 -0.14  2.82  5.50 17.49 19.71 19.55  6.40  3.69  0.47 -2.28
  2.56  2.61  2.82  2.64  2.16  1.84  1.68  1.48  1.58  1.68  2.05  2.23
