 .Sol file Watershed HRU:37 Subbasin:2 HRU:9 Luse:HAY Soil: VA004 Slope: 1-2 11/15/2017 12:00:00 AM ArcSWAT 2012.10_0.14
 Soil Name: MOOMAW
 Soil Hydrologic Group: C
 Maximum rooting depth(m) : 1651.00
 Porosity fraction from which anions are excluded: 0.500
 Crack volume potential of soil: 0.500
 Texture 1                : SIL-CL-SCL
 Depth                [mm]:      203.20      457.20     1651.00
 Bulk Density Moist [g/cc]:        1.48        1.55        1.58
 Ave. AW Incl. Rock Frag  :        0.22        0.18        0.11
 Ksat. (est.)      [mm/hr]:       12.92       15.73       67.39
 Organic Carbon [weight %]:        1.02        0.34        0.11
 Clay           [weight %]:       18.50       27.50       26.50
 Silt           [weight %]:       54.40       37.82       17.66
 Sand           [weight %]:       27.10       34.68       55.84
 Rock Fragments   [vol. %]:        7.21       10.53       15.80
 Soil Albedo (Moist)      :        0.03        0.12        0.19
 Erosion K                :        0.03        0.03        0.03
 Salinity (EC, Form 5)    :        0.00        0.00        0.00
 Soil pH                  :        0.00        0.00        0.00
 Soil CACO3               :        0.00        0.00        0.00
                              
