 .Sol file Watershed HRU:545 Subbasin:9 HRU:21 Luse:URLD Soil: TN134 Slope: 2-5 11/15/2017 12:00:00 AM ArcSWAT 2012.10_0.14
 Soil Name: DUNMORE
 Soil Hydrologic Group: B
 Maximum rooting depth(m) : 2032.00
 Porosity fraction from which anions are excluded: 0.500
 Crack volume potential of soil: 0.500
 Texture 1                : SIL-C
 Depth                [mm]:      203.20     2032.00
 Bulk Density Moist [g/cc]:        1.48        1.48
 Ave. AW Incl. Rock Frag  :        0.24        0.20
 Ksat. (est.)      [mm/hr]:       10.55       12.78
 Organic Carbon [weight %]:        0.73        0.24
 Clay           [weight %]:       22.50       52.50
 Silt           [weight %]:       52.72       29.36
 Sand           [weight %]:       24.78       18.14
 Rock Fragments   [vol. %]:       11.92       10.31
 Soil Albedo (Moist)      :        0.06        0.14
 Erosion K                :        0.03        0.02
 Salinity (EC, Form 5)    :        0.00        0.00
 Soil pH                  :        0.00        0.00
 Soil CACO3               :        0.00        0.00
                              
