 .Wgn file Subbasin: 5 STATION NAME:400836 11/15/2017 12:00:00 AM ArcSWAT 2012.10_0.14
  LATITUDE =  36.48 LONGITUDE = -82.42
  ELEV [m] = 487.70
  RAIN_YRS =  31.00
  7.62 10.18 15.25 20.29 24.53 28.38 29.75 29.63 26.52 20.91 15.13  9.45
 -3.11 -1.69  1.85  6.44 11.30 16.02 18.16 17.61 13.79  7.22  2.20 -1.69
  6.17  6.30  6.20  5.80  4.09  2.92  2.59  2.76  3.79  4.76  5.69  6.05
  5.94  5.39  5.29  4.78  4.23  2.96  2.19  2.28  4.06  5.00  5.31  5.63
  93.8  90.6  94.5  94.4 100.9  97.5 130.3  85.3  83.2  59.1  82.4  90.2
  8.10  8.20  8.12  8.49  8.09  7.93 11.13  8.88 10.81  7.22  8.93  8.48
  2.55  2.02  2.56  2.58  2.56  1.75  2.99  2.51  2.91  2.41  3.26  2.90
  0.30  0.30  0.30  0.28  0.29  0.27  0.30  0.23  0.20  0.19  0.24  0.25
  0.54  0.55  0.52  0.54  0.56  0.59  0.63  0.55  0.55  0.50  0.53  0.55
 12.07 11.09 11.80 11.30 12.17 12.00 13.80 10.43  9.33  8.51 10.07 11.21
  7.57  8.45 15.66 24.72 29.28 27.80 42.89 31.17 29.55 14.35 16.18 11.01
  7.67 10.94 14.58 19.53 22.63 24.13 23.34 21.12 18.14 13.32  9.43  7.54
 -3.35 -2.40 -0.14  2.82  5.50 17.49 19.71 19.55  6.40  3.69  0.47 -2.28
  2.56  2.61  2.82  2.64  2.16  1.84  1.68  1.48  1.58  1.68  2.05  2.23
