 .Sol file Watershed HRU:166 Subbasin:3 HRU:82 Luse:WETF Soil: KY007 Slope: 2-5 11/15/2017 12:00:00 AM ArcSWAT 2012.10_0.14
 Soil Name: GRENADA
 Soil Hydrologic Group: C
 Maximum rooting depth(m) : 1524.00
 Porosity fraction from which anions are excluded: 0.500
 Crack volume potential of soil: 0.500
 Texture 1                : SIL-SICL-SIL-SIL-SIL
 Depth                [mm]:      127.00      533.40      609.60     1066.80     1524.00
 Bulk Density Moist [g/cc]:        1.45        1.45        1.42        1.52        1.52
 Ave. AW Incl. Rock Frag  :        0.24        0.23        0.23        0.23        0.23
 Ksat. (est.)      [mm/hr]:       25.27        6.74       21.06        5.76        5.76
 Organic Carbon [weight %]:        0.73        0.24        0.08        0.03        0.01
 Clay           [weight %]:       14.00       27.50       14.00       23.50       23.50
 Silt           [weight %]:       71.84       65.34       71.84       67.08       67.08
 Sand           [weight %]:       14.16        7.16       14.16        9.42        9.42
 Rock Fragments   [vol. %]:        0.00        0.00        0.00        0.00        0.00
 Soil Albedo (Moist)      :        0.06        0.14        0.20        0.22        0.23
 Erosion K                :        0.03        0.02        0.03        0.02        0.02
 Salinity (EC, Form 5)    :        0.00        0.00        0.00        0.00        0.00
 Soil pH                  :        0.00        0.00        0.00        0.00        0.00
 Soil CACO3               :        0.00        0.00        0.00        0.00        0.00
                              
