 .Wgn file Subbasin: 1 STATION NAME:445057 11/15/2017 12:00:00 AM ArcSWAT 2012.10_0.14
  LATITUDE =  36.75 LONGITUDE = -81.68
  ELEV [m] = 627.90
  RAIN_YRS =  31.00
  4.99  6.95 11.72 17.40 21.41 24.95 26.72 26.34 22.93 17.86 12.23  6.91
 -3.86 -2.39  1.36  6.43 10.79 15.15 17.18 16.70 13.06  7.58  2.69 -1.63
  7.00  6.91  7.10  6.61  5.02  3.39  2.98  3.17  4.27  5.37  6.40  6.74
  6.93  6.26  6.21  5.60  4.36  3.12  2.52  2.61  4.10  5.15  5.74  6.66
  72.1  66.3  87.7  84.8 104.1 101.8 110.2  79.3  76.8  61.8  64.5  69.3
  7.71  8.16  8.42  7.94  9.98 11.81 12.33  9.00 12.69 10.19  8.41  6.83
  2.09  3.30  2.46  1.70  2.45  3.40  2.69  1.71  2.67  2.84  1.94  1.87
  0.27  0.30  0.30  0.29  0.29  0.27  0.27  0.22  0.19  0.17  0.23  0.27
  0.42  0.44  0.43  0.48  0.49  0.47  0.48  0.41  0.42  0.40  0.38  0.40
  9.94  9.76 10.75 10.69 11.27 10.00 10.45  8.33  7.29  6.84  8.00  9.70
  9.71  8.33 16.00 21.52 26.44 28.04 38.58 37.95 34.99 15.32 16.49 10.95
  8.00 11.27 14.83 19.82 23.13 24.76 24.09 21.70 18.60 13.20  9.51  7.75
 -6.02 -5.83 -1.89  1.38  5.50 17.49 19.71 19.55  6.40  2.35 -1.67 -4.95
  3.82  3.66  3.66  3.48  2.75  2.19  2.03  1.77  1.92  2.49  3.01  3.57
