 .Wgn file Subbasin: 14 STATION NAME:400705 11/15/2017 12:00:00 AM ArcSWAT 2012.10_0.14
  LATITUDE =  36.23 LONGITUDE = -88.08
  ELEV [m] = 111.30
  RAIN_YRS =  31.00
  7.81 10.70 16.11 21.51 25.76 29.83 31.80 31.70 27.96 21.90 15.75  9.53
 -2.95 -1.22  2.82  7.60 12.82 17.45 19.74 18.64 14.53  7.91  3.15 -1.54
  6.68  7.19  6.71  5.72  3.86  3.13  2.74  3.04  4.14  4.88  6.11  6.59
  6.67  6.23  5.67  5.49  4.53  3.28  2.52  3.03  4.72  5.55  5.92  6.37
  98.8 113.5 118.6 115.0 129.5 106.8 106.4  82.1 102.0 101.4 130.5 136.1
 11.43 13.00 13.06 10.62 13.50 12.36 11.41 12.01 20.85 14.03 18.82 16.85
  1.77  1.69  3.19  1.56  2.31  2.79  2.27  2.17  6.55  1.72  4.46  2.47
  0.22  0.24  0.26  0.26  0.26  0.26  0.23  0.20  0.17  0.18  0.24  0.23
  0.44  0.48  0.46  0.46  0.49  0.47  0.50  0.36  0.47  0.41  0.44  0.46
  8.86  8.88  9.97  9.87 10.50  9.87  9.73  7.47  7.33  7.34  9.14  9.24
 13.16 15.07 21.79 20.65 38.46 26.41 48.39 43.42 29.56 19.15 26.88 19.95
  6.24  9.68 13.74 17.98 21.20 23.30 22.67 20.36 17.22 13.03  8.67  6.37
 -2.61 -1.30  1.48  3.28  6.17 18.14 20.53 19.73 15.66  4.22  1.41 -1.77
  3.66  3.66  3.72  3.65  3.00  2.33  2.17  2.04  2.11  2.43  3.00  3.41
