 .Wgn file Subbasin: 18 STATION NAME:408179 11/15/2017 12:00:00 AM ArcSWAT 2012.10_0.14
  LATITUDE =  35.87 LONGITUDE = -83.55
  ELEV [m] = 283.50
  RAIN_YRS =  31.00
  9.12 11.88 17.18 21.77 25.94 29.83 31.31 31.04 28.02 22.42 16.23 10.76
 -2.79 -1.33  1.92  6.42 11.20 16.18 18.44 17.96 14.08  7.12  1.96 -1.64
  6.13  6.58  6.17  5.52  3.93  2.88  2.63  2.91  3.79  4.57  5.44  6.13
  6.02  5.55  5.72  4.96  4.53  3.27  2.40  2.51  4.35  5.31  5.47  5.60
  92.1  97.3 101.8  97.0 115.6  97.5 111.6  84.7  82.6  59.3  83.8  93.4
 10.59 12.32 12.46 10.24 12.61 10.86 12.67 10.34 12.71  9.11  9.79  9.52
  2.15  2.74  3.45  2.39  2.13  1.49  2.51  1.61  1.79  1.73  1.53  1.60
  0.24  0.26  0.27  0.24  0.25  0.25  0.25  0.21  0.16  0.15  0.21  0.23
  0.38  0.43  0.39  0.43  0.42  0.42  0.44  0.39  0.42  0.39  0.37  0.44
  8.76  8.68  9.57  9.03  9.43  8.93  9.57  7.77  6.57  6.27  7.62  9.07
  8.84 11.21 16.13 25.40 33.37 28.71 36.66 25.72 28.34 14.45 16.56 13.05
  7.37 10.68 14.41 19.40 22.42 23.88 23.00 20.87 17.98 13.74  9.60  7.37
 -2.34 -1.31  0.86  3.45  5.50 18.27 20.30 20.18 16.77  4.54  1.34 -1.04
  3.02  3.10  3.30  3.18  2.80  2.51  2.44  2.18  2.25  2.23  2.57  2.81
