 .Wgn file Subbasin: 19 STATION NAME:401835 11/15/2017 12:00:00 AM ArcSWAT 2012.10_0.14
  LATITUDE =  36.10 LONGITUDE = -84.10
  ELEV [m] = 259.10
  RAIN_YRS =  31.00
  8.47 11.24 16.57 21.60 25.87 29.66 31.49 31.23 27.72 22.16 15.57 10.74
 -2.29 -0.89  2.72  7.09 12.28 17.05 19.54 18.95 15.01  8.34  2.73 -0.46
  5.92  6.30  6.27  5.84  4.23  3.13  3.41  3.04  4.38  4.82  5.57  7.33
  5.92  5.56  5.30  5.19  4.44  3.03  2.07  2.61  4.21  5.31  5.34  6.37
 121.3 126.4 130.7 116.5 119.3 106.5 135.2  83.2  96.7  72.9 118.3 167.7
 13.49 15.40 14.06 13.87 14.21 13.37 15.70 11.47 17.16 11.23 13.04 31.91
  2.28  2.35  2.38  2.78  2.41  2.47  3.07  2.17  2.02  1.65  1.62  6.86
  0.26  0.28  0.28  0.25  0.25  0.26  0.28  0.23  0.17  0.18  0.23  0.27
  0.44  0.45  0.42  0.41  0.45  0.46  0.46  0.33  0.36  0.36  0.42  0.44
  9.76  9.40 10.21  8.86  9.59  9.62 10.50  7.84  6.38  6.74  8.41 10.13
  9.83 12.23 16.50 23.89 34.94 28.33 36.45 27.09 27.68 14.83 15.80 13.56
  7.37 10.68 14.41 19.40 22.42 23.88 23.00 20.87 17.98 13.74  9.60  7.37
 -2.34 -1.31  0.86  3.45  5.21 18.27 20.30 20.18 16.77  4.54  1.34 -1.04
  3.02  3.10  3.30  3.18  2.80  2.51  2.44  2.18  2.25  2.23  2.57  2.81
