 .Wgn file Subbasin: 17 STATION NAME:404955 11/15/2017 12:00:00 AM ArcSWAT 2012.10_0.14
  LATITUDE =  35.95 LONGITUDE = -83.92
  ELEV [m] = 272.80
  RAIN_YRS =  31.00
  8.35 11.03 16.11 21.02 25.39 29.41 31.12 30.85 27.71 21.66 15.70 10.00
 -2.45 -0.84  2.84  7.32 12.39 17.13 19.53 18.93 15.07  8.06  2.81 -1.10
  5.67  6.08  5.87  5.24  3.78  2.82  2.52  2.72  3.68  4.43  5.34  5.66
  5.64  5.14  5.15  4.77  4.19  2.91  2.03  2.23  4.03  5.00  4.96  5.35
 113.5 110.6 116.9 107.1 119.4  99.1 133.9  84.2  86.0  65.6 104.5 119.0
  9.75 11.02 10.99  9.62 11.40  8.63 10.81  8.67 11.63  7.76  9.52 11.22
  2.11  2.21  2.90  2.86  3.38  2.88  2.23  2.06  2.63  1.41  1.91  2.53
  0.26  0.28  0.29  0.27  0.28  0.28  0.30  0.22  0.18  0.16  0.25  0.25
  0.56  0.56  0.57  0.59  0.59  0.58  0.60  0.53  0.54  0.52  0.56  0.57
 11.52 10.93 12.40 11.93 12.47 11.87 13.27  9.90  8.47  7.74 10.76 11.28
  8.53 11.26 15.66 23.71 33.33 27.62 37.33 25.03 26.67 14.01 15.10 12.65
  7.37 10.68 14.41 19.40 22.42 23.88 23.00 20.87 17.98 13.74  9.60  7.37
 -2.34 -1.31  0.86  3.45  5.50 18.27 20.30 20.18 16.77  4.54  1.34 -1.04
  3.02  3.10  3.30  3.18  2.80  2.51  2.44  2.18  2.25  2.23  2.57  2.81
