 .Wgn file Subbasin: 25 STATION NAME:409492 11/15/2017 12:00:00 AM ArcSWAT 2012.10_0.14
  LATITUDE =  36.08 LONGITUDE = -87.78
  ELEV [m] = 173.10
  RAIN_YRS =  31.00
  8.38 11.16 16.40 21.74 25.99 29.83 31.95 31.88 28.13 22.18 16.04 10.04
 -3.37 -1.77  2.28  7.03 12.44 17.15 19.52 18.49 14.19  7.43  2.60 -1.89
  6.55  6.94  6.62  5.63  3.81  3.05  2.73  2.99  4.08  4.82  6.00  6.48
  6.61  6.28  5.81  5.61  4.78  3.50  2.57  2.98  4.83  5.76  5.96  6.44
 101.0 116.6 130.3 116.7 142.8 110.0 113.5  83.5  99.8  97.6 121.7 135.9
 11.97 13.56 13.70 12.13 16.30 15.35 12.98 11.66 17.32 14.57 14.74 15.59
  2.03  1.95  2.05  2.34  2.10  3.62  2.45  1.87  3.34  2.12  2.24  2.17
  0.22  0.25  0.25  0.26  0.24  0.23  0.23  0.17  0.17  0.16  0.23  0.22
  0.44  0.47  0.48  0.47  0.50  0.48  0.49  0.47  0.48  0.47  0.41  0.50
  8.62  8.98 10.00  9.83  9.93  9.10  9.67  7.43  7.20  7.21  8.48  9.45
 14.56 15.34 21.97 21.95 39.79 28.14 42.35 41.24 25.46 17.33 27.64 17.67
  6.24  9.68 13.74 17.98 21.20 23.30 22.67 20.36 17.22 13.03  8.67  6.37
 -2.61 -1.30  1.48  3.28  6.17 18.81 20.84 20.18 16.46  4.22  1.41 -1.77
  3.66  3.66  3.72  3.65  3.00  2.33  2.17  2.04  2.11  2.43  3.00  3.41
