 .Wgn file Subbasin: 29 STATION NAME:408203 11/15/2017 12:00:00 AM ArcSWAT 2012.10_0.14
  LATITUDE =  35.75 LONGITUDE = -87.28
  ELEV [m] = 167.90
  RAIN_YRS =  31.00
  8.86 11.65 16.82 22.04 26.06 29.93 31.83 31.78 28.29 22.41 16.31 10.49
 -3.03 -1.49  2.45  6.93 12.11 16.90 19.17 18.33 14.03  7.30  2.54 -1.62
  6.16  6.63  6.20  5.21  3.53  2.82  2.48  2.91  3.79  4.52  5.65  6.22
  6.39  5.95  5.48  5.32  4.55  3.17  2.32  2.73  4.63  5.53  5.73  6.37
 101.6 114.2 134.4 121.6 144.7 107.7 119.5  83.0  99.7  88.9 123.1 137.9
 10.13 12.19 12.90 10.83 13.87  9.33 11.18 10.92 13.19 12.52 12.81 14.38
  2.11  2.25  2.13  3.03  3.25  2.97  4.40  3.84  3.24  2.55  1.73  2.47
  0.23  0.26  0.26  0.28  0.25  0.28  0.29  0.20  0.20  0.17  0.23  0.24
  0.51  0.52  0.57  0.58  0.61  0.61  0.60  0.55  0.56  0.54  0.54  0.57
 10.07  9.97 11.70 11.87 12.17 12.47 13.10  9.70  9.23  8.38 10.14 11.17
 15.98 15.87 23.34 22.18 41.38 27.25 35.91 39.26 27.97 18.63 23.90 18.75
  6.45  9.76 13.70 18.35 21.33 23.21 22.29 19.99 17.10 13.11  8.88  6.49
 -2.93 -1.88  0.36  3.15  6.17 18.81 20.84 20.18 16.46  4.34  1.05 -1.57
  3.73  3.79  3.92  3.67  3.20  2.87  2.79  2.64  2.77  2.91  3.39  3.64
