 .Wgn file Subbasin: 23 STATION NAME:311564 11/15/2017 12:00:00 AM ArcSWAT 2012.10_0.14
  LATITUDE =  35.62 LONGITUDE = -83.10
  ELEV [m] = 798.60
  RAIN_YRS =  31.00
  8.09 10.32 14.76 19.24 22.95 26.23 27.57 27.20 24.56 19.96 14.80  9.59
 -5.19 -3.78 -0.51  3.27  7.76 12.19 14.37 13.99 10.30  3.91 -0.38 -3.80
  5.80  6.07  6.04  5.82  4.09  2.91  2.70  2.75  3.51  4.34  5.38  5.70
  5.96  5.36  5.20  4.67  4.38  3.28  2.49  2.50  4.51  5.27  5.36  5.62
 114.5 117.3 124.7 108.1 122.5 116.7 125.6 108.1 100.9  66.0  90.5 108.8
 12.10 13.59 11.90  9.15 11.37  9.93 10.23 10.78 13.09 10.19 10.59 11.40
  1.74  1.78  1.70  1.61  1.99  1.90  2.06  2.51  2.18  2.32  1.86  1.82
  0.25  0.28  0.28  0.31  0.27  0.28  0.31  0.25  0.19  0.17  0.21  0.28
  0.43  0.42  0.47  0.46  0.54  0.55  0.55  0.53  0.52  0.42  0.44  0.38
  9.48  9.15 10.73 10.83 11.57 11.37 12.70 10.93  8.47  6.91  8.14  9.66
  8.84 10.63 15.57 26.64 32.55 29.28 51.16 27.86 32.01 14.04 16.80 12.56
  7.37 10.60 14.29 19.23 22.00 23.38 22.37 20.28 17.43 13.49  9.43  7.37
 -2.34 -1.31  0.86  3.45  5.20 17.49 19.71 19.55 16.01  4.54  1.34 -1.04
  3.02  3.10  3.30  3.18  2.80  2.51  2.44  2.18  2.25  2.23  2.57  2.81
