 .Wgn file Subbasin: 28 STATION NAME:407834 11/15/2017 12:00:00 AM ArcSWAT 2012.10_0.14
  LATITUDE =  35.85 LONGITUDE = -84.70
  ELEV [m] = 262.10
  RAIN_YRS =  31.00
  8.08 10.57 15.85 20.98 25.20 29.24 30.93 30.62 27.40 21.54 15.35  9.68
 -2.97 -1.83  1.76  6.18 11.22 16.22 18.42 17.83 13.96  7.20  1.92 -1.93
  5.66  6.27  6.26  5.76  4.06  3.17  2.79  2.92  3.94  4.50  5.54  5.72
  5.81  5.44  5.13  4.69  4.39  3.01  2.21  2.40  4.24  5.28  5.20  5.50
 126.9 125.9 135.3 125.3 122.9 120.6 134.7 112.6 106.9  83.6 128.3 136.4
 13.39 14.57 15.25 14.31 12.22 14.37 11.44 15.19 17.77 14.41 15.61 15.11
  1.97  2.07  2.25  2.34  1.54  2.33  1.33  3.13  2.88  2.39  1.58  2.24
  0.24  0.26  0.26  0.25  0.25  0.25  0.29  0.22  0.19  0.16  0.22  0.24
  0.44  0.44  0.42  0.46  0.47  0.42  0.46  0.44  0.40  0.40  0.43  0.45
  9.38  8.83  9.63  9.47  9.93  9.10 10.80  8.80  7.20  6.57  8.31  9.31
 11.75 13.03 18.15 23.10 35.47 29.24 47.01 28.68 24.97 15.20 16.62 14.24
  6.79 10.06 13.91 18.86 21.70 23.17 22.17 20.11 17.43 13.37  9.01  6.83
 -1.96 -0.96  1.14  3.50  5.21 18.27 20.30 20.18 16.77  4.77  1.60 -0.77
  2.64  2.74  2.95  2.76  2.33  2.01  1.91  1.79  1.88  1.86  2.16  2.40
