 .Wgn file Subbasin: 27 STATION NAME:312837 11/15/2017 12:00:00 AM ArcSWAT 2012.10_0.14
  LATITUDE =  35.53 LONGITUDE = -82.65
  ELEV [m] = 624.80
  RAIN_YRS =  31.00
  8.83 10.86 15.13 20.17 24.19 27.56 29.28 28.68 25.36 20.37 15.30 10.29
 -3.53 -2.11  1.32  5.60 10.35 14.79 17.04 16.61 12.67  6.43  1.55 -2.18
  5.65  5.80  5.63  5.39  3.88  2.99  2.70  2.83  3.51  4.29  5.16  5.68
  5.56  5.03  4.92  4.50  4.17  2.92  2.00  2.25  4.03  5.08  5.26  5.37
  78.4  88.4  97.4  85.3  95.7  98.1 100.9  93.7 107.6  59.2  76.3  74.1
 13.30 13.60 12.10 10.32 11.11 10.60 11.34 14.19 25.16 10.64 12.64  9.96
  2.70  2.41  2.14  1.67  2.28  2.46  2.87  3.26  6.53  1.97  2.38  2.02
  0.18  0.21  0.24  0.22  0.22  0.23  0.25  0.19  0.16  0.14  0.18  0.18
  0.39  0.40  0.40  0.43  0.49  0.49  0.47  0.49  0.51  0.37  0.38  0.44
  7.07  7.26  8.80  8.30  9.23  9.23  9.97  8.53  7.30  5.71  6.69  7.48
 11.64 11.60 16.58 30.10 34.42 29.36 42.65 33.05 45.25 16.04 19.47 13.31
  8.51 11.77 15.08 19.94 22.71 24.13 23.34 21.03 17.64 13.87 10.43  8.42
 -3.46 -2.72 -0.33  2.45  5.20 17.49 19.71 19.55 16.01  3.39  0.19 -2.54
  3.94  3.83  3.81  3.58  2.90  2.39  2.28  2.10  2.23  2.63  3.30  3.52
