 .Wgn file Subbasin: 36 STATION NAME:402648 11/15/2017 12:00:00 AM ArcSWAT 2012.10_0.14
  LATITUDE =  35.45 LONGITUDE = -88.15
  ELEV [m] = 164.90
  RAIN_YRS =  31.00
  8.94 11.55 17.01 22.25 26.60 30.68 32.73 32.57 28.72 22.83 16.33 10.56
 -1.62  0.17  4.43  9.19 14.16 18.59 20.75 19.83 15.36  9.18  4.24 -0.12
  6.60  7.08  6.32  5.49  3.88  3.04  2.77  3.18  4.16  4.88  5.91  6.61
  6.46  6.14  5.82  5.57  4.42  3.12  2.42  2.87  4.76  5.62  6.04  6.63
  96.1 107.9 125.1 122.8 126.3 120.0 103.5  66.9  91.0  96.8 128.4 138.3
 13.46 15.77 17.15 14.76 15.77 14.94 16.77 11.99 21.13 16.81 17.72 18.27
  2.24  2.35  2.92  1.66  1.77  1.66  1.89  1.32  4.83  1.75  2.17  2.22
  0.21  0.23  0.25  0.23  0.22  0.22  0.19  0.14  0.16  0.16  0.21  0.20
  0.37  0.40  0.37  0.38  0.43  0.38  0.37  0.30  0.35  0.37  0.40  0.44
  7.74  7.89  8.79  8.07  8.50  7.87  7.16  5.29  6.05  6.27  7.79  8.27
 16.98 17.51 27.72 24.03 40.86 29.74 44.16 41.68 29.87 18.86 27.56 21.24
  6.37  9.76 13.74 18.10 21.29 23.34 22.63 20.28 17.22 13.11  8.76  6.45
 -2.61 -1.30  1.48  3.87  6.17 18.14 20.53 19.73 15.66  4.69  1.41 -1.77
  3.66  3.66  3.72  3.65  3.00  2.33  2.17  2.04  2.11  2.43  3.00  3.41
