 .Wgn file Subbasin: 34 STATION NAME:409155 11/15/2017 12:00:00 AM ArcSWAT 2012.10_0.14
  LATITUDE =  35.35 LONGITUDE = -86.22
  ELEV [m] = 311.50
  RAIN_YRS =  31.00
  9.04 11.52 16.24 21.21 25.25 29.23 30.95 30.83 27.50 21.94 15.90 10.47
 -1.86 -0.22  3.40  7.81 12.70 17.15 19.55 18.89 14.97  8.44  3.52 -0.53
  6.09  6.49  6.07  5.19  3.73  3.03  2.58  2.95  3.84  4.54  5.56  6.16
  6.42  6.10  5.64  5.27  4.41  3.04  2.14  2.49  4.40  5.51  5.79  6.18
 119.1 126.1 150.0 123.8 131.6 120.1 110.1  89.0 107.6  91.5 135.3 153.4
 13.45 16.04 17.89 15.78 17.31 16.66 12.72 13.37 18.07 16.37 15.69 17.80
  2.65  3.32  2.93  3.10  2.58  3.42  2.14  2.34  2.65  3.12  1.97  2.99
  0.25  0.28  0.27  0.27  0.24  0.24  0.25  0.21  0.17  0.17  0.24  0.27
  0.43  0.45  0.45  0.41  0.46  0.47  0.44  0.40  0.44  0.39  0.43  0.47
  9.38  9.44 10.27  9.43  9.57  9.27  9.53  7.97  7.10  6.84  8.83 10.45
 16.78 15.02 23.24 22.76 38.40 27.47 48.34 34.89 28.93 18.14 18.53 16.64
  7.04 10.22 13.87 18.69 21.66 23.13 22.42 20.28 17.39 13.53  9.34  6.87
 -1.52 -0.33  1.48  3.63  6.17 18.81 20.84 20.18 16.46  4.70  1.72 -0.50
  3.87  3.98  4.16  3.93  3.49  2.81  2.44  2.39  2.88  3.00  3.42  3.67
