 .Wgn file Subbasin: 33 STATION NAME:406950 11/15/2017 12:00:00 AM ArcSWAT 2012.10_0.14
  LATITUDE =  35.48 LONGITUDE = -86.58
  ELEV [m] = 235.00
  RAIN_YRS =  31.00
  9.24 11.75 16.69 21.66 25.98 30.02 31.76 31.74 28.39 22.54 16.37 10.72
 -2.10 -0.59  3.23  7.49 12.56 17.09 19.40 18.62 14.58  8.13  3.32 -0.80
  5.79  6.28  5.78  4.97  3.55  2.85  2.36  2.77  3.73  4.41  5.34  5.92
  6.40  5.99  5.64  5.28  4.53  3.10  2.15  2.63  4.52  5.61  5.79  6.27
 113.7 116.5 143.0 113.3 131.6 114.8 114.0  88.5 102.4  86.9 127.7 139.5
 11.25 13.15 14.20 10.44 12.90  9.47  8.20  9.48 13.07 11.84 12.70 13.97
  2.45  2.99  2.38  2.15  3.02  2.46  2.41  2.60  3.17  2.66  1.98  2.77
  0.25  0.28  0.28  0.27  0.28  0.26  0.31  0.24  0.17  0.18  0.24  0.23
  0.54  0.54  0.54  0.56  0.59  0.65  0.63  0.57  0.61  0.53  0.55  0.61
 10.83 10.63 11.70 11.27 12.63 12.87 14.07 11.07  9.24  8.48 10.38 11.52
 16.73 15.48 23.19 21.56 40.57 26.56 45.89 37.57 28.83 18.77 21.39 16.99
  7.04 10.22 13.87 18.69 21.66 23.13 22.42 20.28 17.39 13.53  9.34  6.87
 -1.52 -0.33  1.48  3.63  6.17 18.81 20.84 20.18 16.46  4.70  1.72 -0.50
  3.87  3.98  4.16  3.93  3.49  2.81  2.44  2.39  2.88  3.00  3.42  3.67
