 .Wgn file Subbasin: 31 STATION NAME:319139 11/15/2017 12:00:00 AM ArcSWAT 2012.10_0.14
  LATITUDE =  35.18 LONGITUDE = -83.57
  ELEV [m] =1631.90
  RAIN_YRS =  31.00
  8.66 11.36 16.35 21.22 25.56 29.53 31.22 31.06 27.67 21.73 15.57 10.18
 -1.49  0.14  3.80  8.27 13.13 17.85 20.17 19.74 15.67  8.98  3.58 -0.23
  6.10  6.33  6.15  5.39  4.02  3.10  3.62  2.90  3.96  4.64  5.84  5.96
  5.95  5.56  5.49  5.11  4.29  2.97  2.76  2.22  4.09  5.19  5.29  5.57
 106.2 106.3 115.4 102.6 110.4  95.4 124.3  79.4  78.6  59.6  98.5 111.2
 11.96 11.93 13.76 12.10 13.03 11.08 14.41 11.58 14.21  9.21 10.22 13.00
  2.15  1.87  4.62  2.99  2.22  1.99  2.06  2.22  2.19  1.38  1.37  2.64
  0.24  0.29  0.30  0.26  0.27  0.25  0.26  0.20  0.16  0.16  0.24  0.24
  0.43  0.42  0.42  0.40  0.40  0.44  0.39  0.36  0.38  0.35  0.36  0.43
  9.31  9.29 10.69  9.10  9.59  9.10  9.37  7.41  6.00  6.28  8.19  9.28
 10.33 11.21 17.65 26.45 32.69 29.55 44.72 25.64 28.25 16.01 18.58 14.00
  7.37 10.60 14.29 19.23 22.00 23.38 22.37 20.28 17.43 13.49  9.43  7.37
 -2.34 -1.31  0.86  3.45  5.20 18.27 20.30 20.18 16.77  4.54  1.34 -1.04
  3.02  3.10  3.30  3.18  2.80  2.51  2.44  2.18  2.25  2.23  2.57  2.81
