 .Wgn file Subbasin: 32 STATION NAME:318492 11/15/2017 12:00:00 AM ArcSWAT 2012.10_0.14
  LATITUDE =  35.45 LONGITUDE = -83.93
  ELEV [m] = 338.30
  RAIN_YRS =  31.00
  9.98 12.28 17.25 22.11 25.74 29.16 30.75 30.40 27.05 21.76 16.54 11.33
 -1.53 -0.22  3.04  6.77 11.10 15.13 16.98 16.61 13.88  7.88  3.29 -0.15
  5.67  6.03  5.74  5.37  3.92  3.03  2.86  2.82  3.78  4.44  5.11  5.78
  5.87  5.53  5.51  4.99  4.19  2.95  2.21  2.27  3.80  5.24  5.38  5.73
 120.7 124.1 129.0 104.2 131.9 134.9 131.9  93.9  96.4  66.8 112.4 120.9
 13.28 13.77 14.23 11.93 14.11 12.69 12.85 11.00 14.69 11.16 12.19 12.15
  2.07  2.20  4.10  3.26  2.65  1.84  2.09  1.83  2.22  2.22  1.66  2.39
  0.25  0.31  0.29  0.27  0.26  0.27  0.28  0.22  0.18  0.17  0.22  0.27
  0.46  0.45  0.46  0.43  0.48  0.50  0.47  0.44  0.46  0.37  0.44  0.49
  9.86 10.09 10.77  9.53 10.37 10.61 10.62  8.77  7.46  6.65  8.59 10.79
 11.13 11.82 17.99 25.60 33.27 29.77 37.62 26.59 27.51 15.77 18.29 14.79
  6.79 10.06 13.91 18.86 21.70 23.17 22.17 20.11 17.43 13.37  9.01  6.83
 -2.34 -1.31  0.86  3.45  5.20 18.27 20.30 20.18 16.77  4.54  1.34 -1.04
  3.02  3.10  3.30  3.18  2.80  2.51  2.44  2.18  2.25  2.23  2.57  2.81
