 .Sol file Watershed HRU:2203 Subbasin:33 HRU:45 Luse:WILL Soil: TN062 Slope: 0-1 11/15/2017 12:00:00 AM ArcSWAT 2012.10_0.14
 Soil Name: ROCK OUTCROP
 Soil Hydrologic Group: D
 Maximum rooting depth(m) : 1524.00
 Porosity fraction from which anions are excluded: 0.500
 Crack volume potential of soil: 0.500
 Texture 1                : UWB
 Depth                [mm]:     1524.00
 Bulk Density Moist [g/cc]:        2.50
 Ave. AW Incl. Rock Frag  :        0.28
 Ksat. (est.)      [mm/hr]:       69.26
 Organic Carbon [weight %]:        0.00
 Clay           [weight %]:        5.00
 Silt           [weight %]:       25.00
 Sand           [weight %]:       70.00
 Rock Fragments   [vol. %]:       98.00
 Soil Albedo (Moist)      :        0.23
 Erosion K                :        0.03
 Salinity (EC, Form 5)    :        0.00
 Soil pH                  :        0.00
 Soil CACO3               :        0.00
                              
