 .Wgn file Subbasin: 46 STATION NAME:408399 11/15/2017 12:00:00 AM ArcSWAT 2012.10_0.14
  LATITUDE =  35.08 LONGITUDE = -85.73
  ELEV [m] = 203.90
  RAIN_YRS =  31.00
 10.16 12.66 17.54 22.44 26.53 30.43 32.36 31.99 28.37 22.72 16.70 11.43
 -0.58  1.01  4.73  8.93 13.86 18.57 20.98 20.55 16.47  9.79  4.48  0.68
  5.76  6.13  5.93  5.23  3.90  3.18  2.88  3.05  3.89  4.34  5.21  5.65
  5.80  5.31  5.17  4.78  4.05  2.79  1.94  2.20  3.93  5.11  5.26  5.61
 122.9 121.3 136.6 103.2  96.8 105.7 123.2  86.2  97.8  78.4 124.5 121.1
 14.82 15.11 17.91 12.62 11.44 12.27 13.96 11.87 16.60 15.11 14.37 13.78
  2.18  1.71  4.04  2.57  2.06  2.48  2.00  2.01  2.91  1.64  1.37  2.09
  0.24  0.25  0.26  0.24  0.25  0.25  0.26  0.19  0.17  0.14  0.23  0.24
  0.40  0.42  0.40  0.39  0.39  0.43  0.41  0.40  0.40  0.36  0.39  0.43
  9.00  8.57  9.52  8.38  9.01  9.07  9.59  7.52  6.55  5.52  8.31  9.24
 16.74 12.84 22.13 22.64 34.84 28.86 36.89 32.11 29.18 16.56 17.33 14.14
  7.50 10.60 14.08 19.11 22.00 23.17 22.50 20.53 17.72 13.87  9.68  7.25
 -1.96 -0.96  1.14  3.50  6.17 18.81 20.84 20.18 16.46  4.77  1.60 -0.77
  2.64  2.74  2.95  2.76  2.33  2.01  1.91  1.79  1.88  1.86  2.16  2.40
