 .Wgn file Subbasin: 42 STATION NAME:402360 11/15/2017 12:00:00 AM ArcSWAT 2012.10_0.14
  LATITUDE =  35.47 LONGITUDE = -85.00
  ELEV [m] = 263.70
  RAIN_YRS =  31.00
  8.61 11.38 16.55 21.63 25.61 29.54 31.07 30.88 27.41 21.57 15.33  9.87
 -1.54 -0.09  3.67  7.83 12.61 17.08 19.32 18.83 15.17  8.65  3.71 -0.31
  5.54  6.13  5.88  5.33  3.64  3.03  2.90  2.94  3.75  4.32  5.21  5.53
  6.10  5.66  5.43  4.96  4.19  2.95  2.08  2.27  4.05  5.24  5.43  5.79
 123.6 119.5 131.2 111.9 127.0 106.6 119.0 103.2 111.4  78.7 123.9 131.7
 13.85 15.44 15.36 13.65 17.22 12.65 13.30 16.67 19.56 14.76 14.48 16.35
  1.70  2.49  2.20  2.48  4.61  2.37  2.06  2.86  4.29  2.77  1.23  2.75
  0.23  0.24  0.25  0.24  0.26  0.25  0.26  0.20  0.17  0.16  0.21  0.23
  0.40  0.43  0.42  0.40  0.44  0.43  0.47  0.43  0.46  0.41  0.39  0.44
  8.72  8.45  9.47  8.53  9.93  9.23 10.10  8.03  7.33  6.71  7.83  9.07
 13.21 13.03 19.41 24.76 34.91 30.53 48.97 28.81 25.63 15.46 17.03 15.17
  6.75 10.01 13.87 18.77 21.66 23.21 22.21 20.07 17.39 13.32  8.97  6.79
 -1.96 -0.96  1.14  3.50  6.17 18.81 20.84 20.18 16.46  4.77  1.60 -0.77
  2.64  2.74  2.95  2.76  2.33  2.01  1.91  1.79  1.88  1.86  2.16  2.40
