 .Sol file Watershed HRU:3177 Subbasin:46 HRU:31 Luse:WILL Soil: TN147 Slope: 0-1 11/15/2017 12:00:00 AM ArcSWAT 2012.10_0.14
 Soil Name: MELVIN
 Soil Hydrologic Group: D
 Maximum rooting depth(m) : 1574.80
 Porosity fraction from which anions are excluded: 0.500
 Crack volume potential of soil: 0.500
 Texture 1                : SIL-SIL-L
 Depth                [mm]:      228.60      762.00     1574.80
 Bulk Density Moist [g/cc]:        1.40        1.45        1.55
 Ave. AW Incl. Rock Frag  :        0.29        0.29        0.22
 Ksat. (est.)      [mm/hr]:       44.05       14.68       76.36
 Organic Carbon [weight %]:        1.02        0.73        0.35
 Clay           [weight %]:       14.50       23.50       23.50
 Silt           [weight %]:       71.42       67.08       43.60
 Sand           [weight %]:       14.08        9.42       32.90
 Rock Fragments   [vol. %]:        2.70        2.80        6.10
 Soil Albedo (Moist)      :        0.03        0.06        0.12
 Erosion K                :        0.03        0.03        0.03
 Salinity (EC, Form 5)    :        0.00        0.00        0.00
 Soil pH                  :        0.00        0.00        0.00
 Soil CACO3               :        0.00        0.00        0.00
                              
