 .Sol file Watershed HRU:3387 Subbasin:49 HRU:41 Luse:SHRB Soil: MS125 Slope: 0-1 11/15/2017 12:00:00 AM ArcSWAT 2012.10_0.14
 Soil Name: ARKABUTLA
 Soil Hydrologic Group: C
 Maximum rooting depth(m) : 1397.00
 Porosity fraction from which anions are excluded: 0.500
 Crack volume potential of soil: 0.500
 Texture 1                : SIL-SICL
 Depth                [mm]:      152.40     1397.00
 Bulk Density Moist [g/cc]:        1.45        1.50
 Ave. AW Incl. Rock Frag  :        0.38        0.35
 Ksat. (est.)      [mm/hr]:        6.17        2.10
 Organic Carbon [weight %]:        1.16        0.39
 Clay           [weight %]:       15.00       27.50
 Silt           [weight %]:       71.01       65.34
 Sand           [weight %]:       13.99        7.16
 Rock Fragments   [vol. %]:        0.00        0.00
 Soil Albedo (Moist)      :        0.02        0.11
 Erosion K                :        0.03        0.02
 Salinity (EC, Form 5)    :        0.00        0.00
 Soil pH                  :        0.00        0.00
 Soil CACO3               :        0.00        0.00
                              
