 .Wgn file Subbasin: 43 STATION NAME:91906 11/15/2017 12:00:00 AM ArcSWAT 2012.10_0.14
  LATITUDE =  34.88 LONGITUDE = -85.27
  ELEV [m] = 225.60
  RAIN_YRS =  31.00
  9.22 11.68 16.66 21.43 25.36 29.36 31.20 30.92 27.33 21.72 16.00 10.58
 -1.36  0.22  3.93  8.10 13.06 17.65 19.90 19.54 15.79  9.24  4.07  0.08
  5.45  5.82  5.58  4.93  3.55  3.10  2.82  2.88  3.63  4.09  4.98  5.43
  5.73  5.15  5.01  4.56  3.86  2.66  1.89  2.01  3.78  4.92  5.10  5.50
 114.4 113.5 117.3  83.4  92.2  75.6  90.4  77.4  97.1  79.2 110.6 109.4
 14.34 17.04 15.84 10.29 15.27 11.06 14.49 12.57 19.77 15.96 15.44 14.03
  2.08  2.48  2.52  1.81  3.01  1.90  2.72  2.22  3.87  2.62  1.78  2.18
  0.21  0.22  0.20  0.19  0.19  0.16  0.20  0.16  0.13  0.13  0.21  0.21
  0.43  0.45  0.43  0.40  0.42  0.50  0.37  0.42  0.46  0.41  0.41  0.43
  8.38  7.96  8.07  7.20  7.57  7.20  7.37  6.63  5.90  5.57  7.72  8.28
 17.78 14.90 23.61 26.30 33.45 31.54 37.23 31.29 30.35 17.90 19.06 16.51
  7.75 10.89 14.50 19.44 22.17 23.30 22.42 20.66 17.72 13.95  9.89  7.58
 -1.96 -0.96  1.14  3.50 13.92 18.27 20.30 20.18 16.77  4.77  1.60 -0.77
  2.64  2.74  2.95  2.76  2.33  2.01  1.91  1.79  1.88  1.86  2.16  2.40
