 .Wgn file Subbasin: 41 STATION NAME:409785 11/15/2017 12:00:00 AM ArcSWAT 2012.10_0.14
  LATITUDE =  35.23 LONGITUDE = -86.10
  ELEV [m] = 292.90
  RAIN_YRS =  31.00
 10.11 12.70 17.62 22.47 26.77 30.43 32.11 32.14 28.85 23.04 16.90 11.54
 -0.43  1.47  5.15  9.53 14.61 18.92 20.91 20.26 16.47 10.06  4.98  0.91
  6.19  6.49  6.06  5.14  3.85  3.55  2.73  3.09  3.91  4.57  5.42  6.20
  6.13  5.72  5.45  4.96  4.04  2.70  1.77  2.31  4.21  5.29  5.55  6.10
 123.7 121.0 142.1 109.8 128.3 109.2  99.2  89.3  98.1  84.3 125.4 142.3
 15.94 17.44 17.68 14.31 18.25 15.91 12.90 16.43 17.98 16.63 15.82 21.73
  2.92  2.60  2.60  2.29  2.75  2.36  3.47  2.70  1.92  2.10  1.75  4.83
  0.24  0.26  0.24  0.24  0.22  0.23  0.21  0.18  0.14  0.15  0.23  0.22
  0.40  0.39  0.40  0.39  0.40  0.38  0.41  0.37  0.40  0.36  0.38  0.41
  8.72  8.30  8.90  8.59  8.25  8.02  8.10  6.93  5.76  5.90  8.03  8.53
 16.84 14.90 23.34 23.24 37.74 27.78 32.24 34.15 29.03 17.84 18.51 16.64
  7.04 10.22 13.87 18.69 21.66 23.13 22.42 20.28 17.39 13.53  9.34  6.87
 -1.52 -0.33  1.48  3.63  6.17 18.81 20.84 20.18 16.46  4.70  1.72 -0.50
  3.87  3.98  4.16  3.93  3.49  2.81  2.44  2.39  2.88  3.00  3.42  3.67
