 .Wgn file Subbasin: 49 STATION NAME:408108 11/15/2017 12:00:00 AM ArcSWAT 2012.10_0.14
  LATITUDE =  35.15 LONGITUDE = -88.32
  ELEV [m] = 128.00
  RAIN_YRS =  31.00
 10.50 13.51 18.69 23.47 27.22 31.14 32.85 32.84 29.54 23.90 17.83 11.90
 -1.25  0.45  4.58  8.87 13.79 18.23 20.19 19.42 15.55  9.07  4.59  0.24
  6.24  6.80  6.10  5.06  3.56  2.94  2.71  3.13  3.90  4.71  5.59  6.25
  6.36  6.09  5.87  5.41  4.35  3.27  2.32  2.80  4.49  5.61  5.96  6.58
 113.3 122.4 134.6 133.6 157.7 107.3 122.6  83.3 109.6  97.4 134.8 142.0
 16.33 15.33 16.91 15.14 22.58 13.52 15.93 16.36 26.20 16.71 18.86 17.77
  2.57  2.21  2.30  1.72  4.06  1.41  2.60  2.58  5.48  2.34  2.36  2.55
  0.21  0.25  0.24  0.26  0.25  0.21  0.23  0.16  0.16  0.17  0.22  0.23
  0.40  0.41  0.44  0.41  0.43  0.41  0.40  0.35  0.39  0.40  0.42  0.46
  8.17  8.32  9.33  9.10  9.53  7.90  8.67  6.17  6.10  6.71  8.34  9.28
 17.46 17.33 27.31 23.60 39.60 26.19 39.22 41.90 29.22 18.98 28.98 24.78
  6.37  9.76 13.74 18.10 21.29 23.34 22.63 20.28 17.22 13.11  8.76  6.45
 -2.61 -1.30  1.48  3.87  6.17 18.14 20.53 19.73 15.66  4.69  1.41 -1.77
  3.66  3.66  3.72  3.65  3.00  2.33  2.17  2.04  2.11  2.43  3.00  3.41
