 .Wgn file Subbasin: 44 STATION NAME:91024 11/15/2017 12:00:00 AM ArcSWAT 2012.10_0.14
  LATITUDE =  34.87 LONGITUDE = -84.32
  ELEV [m] = 560.80
  RAIN_YRS =  31.00
  9.33 11.89 16.18 21.07 25.29 28.73 30.68 30.14 26.75 21.95 16.52 11.31
 -3.56 -1.99  1.08  4.91  9.85 14.86 17.56 16.90 12.66  6.25  1.49 -2.30
  5.92  6.39  6.03  5.66  3.80  3.12  2.93  2.89  3.71  4.40  5.25  5.97
  6.47  5.95  5.48  4.93  4.70  3.22  2.32  2.41  4.50  5.53  5.93  6.36
 137.4 134.8 148.6 118.4 127.1 130.1 129.5 114.1 119.9  95.6 133.0 132.4
 14.90 16.41 14.52 12.33 13.79 12.65 11.59 10.72 17.02 16.72 13.20 11.91
  2.88  3.23  2.13  2.12  2.68  2.25  3.71  2.05  3.31  2.54  1.62  1.53
  0.26  0.27  0.27  0.27  0.26  0.28  0.32  0.24  0.19  0.16  0.23  0.26
  0.47  0.49  0.48  0.45  0.50  0.54  0.53  0.56  0.58  0.46  0.53  0.49
 10.15  9.72 10.63  9.93 10.69 11.40 12.60 11.13  9.48  7.04 10.03 10.41
 14.29 15.20 18.39 24.91 31.96 30.99 40.12 26.30 24.41 22.46 20.96 15.57
  7.71 10.89 14.71 19.53 22.00 23.34 22.21 20.57 17.51 13.83  9.85  7.67
 -2.34 -1.31  0.86  3.45 13.92 18.27 20.30 20.18 16.77  4.54  1.34 -1.04
  3.02  3.10  3.30  3.18  2.80  2.51  2.44  2.18  2.25  2.23  2.57  2.81
