 .Sol file Watershed HRU:3205 Subbasin:47 HRU:11 Luse:HAY Soil: GA011 Slope: 0-1 11/15/2017 12:00:00 AM ArcSWAT 2012.10_0.14
 Soil Name: TOWNLEY
 Soil Hydrologic Group: C
 Maximum rooting depth(m) : 1016.00
 Porosity fraction from which anions are excluded: 0.500
 Crack volume potential of soil: 0.500
 Texture 1                : SIL-SIC-VAR-WB
 Depth                [mm]:      152.40      558.80      889.00     1016.00
 Bulk Density Moist [g/cc]:        1.45        1.45        1.50        1.70
 Ave. AW Incl. Rock Frag  :        0.31        0.31        0.19        0.10
 Ksat. (est.)      [mm/hr]:       19.79        2.85     1677.29      838.64
 Organic Carbon [weight %]:        0.73        0.15        0.15        0.05
 Clay           [weight %]:       18.50       47.50       15.00       20.00
 Silt           [weight %]:       54.40       46.98       30.00       40.00
 Sand           [weight %]:       27.10        5.52       55.00       40.00
 Rock Fragments   [vol. %]:       10.93       12.56       20.00       90.00
 Soil Albedo (Moist)      :        0.06        0.17        0.17        0.21
 Erosion K                :        0.03        0.02        0.00        0.00
 Salinity (EC, Form 5)    :        0.00        0.00        0.00        0.00
 Soil pH                  :        0.00        0.00        0.00        0.00
 Soil CACO3               :        0.00        0.00        0.00        0.00
                              
