 .Sol file Watershed HRU:3214 Subbasin:47 HRU:20 Luse:HAY Soil: GA106 Slope: 5-9999 11/15/2017 12:00:00 AM ArcSWAT 2012.10_0.14
 Soil Name: LYERLY
 Soil Hydrologic Group: D
 Maximum rooting depth(m) :  838.20
 Porosity fraction from which anions are excluded: 0.500
 Crack volume potential of soil: 0.500
 Texture 1                : SICL-C-C-UWB
 Depth                [mm]:      152.40      558.80      812.80      838.20
 Bulk Density Moist [g/cc]:        1.35        1.45        1.45        2.50
 Ave. AW Incl. Rock Frag  :        0.31        0.29        0.29        0.02
 Ksat. (est.)      [mm/hr]:       19.79        3.91        4.01     1250.02
 Organic Carbon [weight %]:        0.73        0.24        0.08        0.03
 Clay           [weight %]:       27.50       67.50       62.50        5.00
 Silt           [weight %]:       52.50       22.74       26.24       25.00
 Sand           [weight %]:       20.00        9.76       11.26       70.00
 Rock Fragments   [vol. %]:        2.61        2.80        1.38       98.00
 Soil Albedo (Moist)      :        0.06        0.14        0.20        0.22
 Erosion K                :        0.03        0.02        0.02        0.00
 Salinity (EC, Form 5)    :        0.00        0.00        0.00        0.00
 Soil pH                  :        0.00        0.00        0.00        0.00
 Soil CACO3               :        0.00        0.00        0.00        0.00
                              
