 .Sol file Watershed HRU:3457 Subbasin:50 HRU:7 Luse:CORN Soil: MS116 Slope: 0-1 11/15/2017 12:00:00 AM ArcSWAT 2012.10_0.14
 Soil Name: KIRKVILLE
 Soil Hydrologic Group: C
 Maximum rooting depth(m) : 1828.80
 Porosity fraction from which anions are excluded: 0.500
 Crack volume potential of soil: 0.500
 Texture 1                : SIL-L
 Depth                [mm]:      228.60     1828.80
 Bulk Density Moist [g/cc]:        1.40        1.45
 Ave. AW Incl. Rock Frag  :        0.36        0.26
 Ksat. (est.)      [mm/hr]:       24.69      174.27
 Organic Carbon [weight %]:        0.73        0.24
 Clay           [weight %]:       20.50       14.00
 Silt           [weight %]:       53.07       41.14
 Sand           [weight %]:       26.43       44.86
 Rock Fragments   [vol. %]:        0.00        0.00
 Soil Albedo (Moist)      :        0.06        0.14
 Erosion K                :        0.03        0.02
 Salinity (EC, Form 5)    :        0.00        0.00
 Soil pH                  :        0.00        0.00
 Soil CACO3               :        0.00        0.00
                              
