 .Wgn file Subbasin: 53 STATION NAME:14976 11/15/2017 12:00:00 AM ArcSWAT 2012.10_0.14
  LATITUDE =  34.70 LONGITUDE = -86.75
  ELEV [m] = 177.10
  RAIN_YRS =  31.00
  9.90 12.58 17.45 22.27 26.52 30.38 31.95 32.01 28.75 22.90 16.84 11.40
 -0.83  1.01  4.81  9.06 14.21 18.54 20.57 19.94 16.13  9.67  4.61  0.54
  5.82  6.22  5.77  4.90  3.58  2.96  2.54  2.88  3.68  4.36  5.21  5.93
  5.99  5.64  5.42  4.95  4.06  2.72  1.80  2.28  4.20  5.23  5.47  5.99
 121.8 119.8 139.8 112.4 130.4 110.4 105.0  87.1  99.9  88.3 125.1 143.6
 13.14 14.44 14.67 11.51 14.59 10.44  9.48 11.04 13.40 12.80 12.43 18.10
  2.97  2.75  2.76  2.19  3.60  2.56  3.25  2.82  2.07  2.12  1.63  4.65
  0.25  0.26  0.28  0.25  0.26  0.27  0.28  0.21  0.16  0.17  0.24  0.23
  0.52  0.52  0.51  0.55  0.56  0.61  0.58  0.53  0.58  0.50  0.52  0.57
 10.66  9.87 11.17 10.73 11.47 12.30 12.27  9.73  8.13  7.74 10.03 10.66
 20.04 16.69 29.75 25.98 36.27 27.56 43.20 35.16 31.53 18.26 22.60 20.09
  8.00 10.98 14.25 19.27 22.25 23.21 22.71 20.82 17.89 14.25 10.10  7.54
 -1.52 -0.33  1.48  3.63 14.54 18.81 20.84 20.18 16.46  4.70  1.72 -0.50
  3.87  3.98  4.16  3.93  3.49  2.81  2.44  2.39  2.88  3.00  3.42  3.67
