 .Sol file Watershed HRU:3835 Subbasin:54 HRU:1 Luse:CORN Soil: MS099 Slope: 1-2 11/15/2017 12:00:00 AM ArcSWAT 2012.10_0.14
 Soil Name: BUDE
 Soil Hydrologic Group: C
 Maximum rooting depth(m) : 1600.20
 Porosity fraction from which anions are excluded: 0.500
 Crack volume potential of soil: 0.500
 Texture 1                : SIL-SIL-CL-SICL
 Depth                [mm]:      482.60      736.60     1447.80     1600.20
 Bulk Density Moist [g/cc]:        1.50        1.52        1.52        1.52
 Ave. AW Incl. Rock Frag  :        0.28        0.25        0.22        0.24
 Ksat. (est.)      [mm/hr]:       27.75       24.88       62.21       13.40
 Organic Carbon [weight %]:        0.73        0.24        0.08        0.03
 Clay           [weight %]:       18.50       21.00       27.50       27.50
 Silt           [weight %]:       69.86       67.71       45.13       65.34
 Sand           [weight %]:       11.64       11.29       27.37        7.16
 Rock Fragments   [vol. %]:        0.00        0.00        0.00        0.00
 Soil Albedo (Moist)      :        0.06        0.14        0.20        0.22
 Erosion K                :        0.03        0.02        0.02        0.02
 Salinity (EC, Form 5)    :        0.00        0.00        0.00        0.00
 Soil pH                  :        0.00        0.00        0.00        0.00
 Soil CACO3               :        0.00        0.00        0.00        0.00
                              
