 .Wgn file Subbasin: 55 STATION NAME:17310 11/15/2017 12:00:00 AM ArcSWAT 2012.10_0.14
  LATITUDE =  34.68 LONGITUDE = -86.02
  ELEV [m] = 200.90
  RAIN_YRS =  31.00
 10.11 12.70 17.62 22.47 26.77 30.43 32.11 32.14 28.85 23.04 16.90 11.54
 -0.43  1.47  5.15  9.53 14.61 18.92 20.91 20.26 16.47 10.06  4.98  0.91
  6.19  6.49  6.06  5.14  3.85  3.55  2.73  3.09  3.91  4.57  5.42  6.20
  6.13  5.72  5.45  4.96  4.04  2.70  1.77  2.31  4.21  5.29  5.55  6.10
 123.7 121.0 142.1 109.8 128.3 109.2  99.2  89.3  98.1  84.3 125.4 142.3
 15.94 17.44 17.68 14.31 18.25 15.91 12.90 16.43 17.98 16.63 15.82 21.73
  2.92  2.60  2.60  2.29  2.75  2.36  3.47  2.70  1.92  2.10  1.75  4.83
  0.24  0.26  0.24  0.24  0.22  0.23  0.21  0.18  0.14  0.15  0.23  0.22
  0.40  0.39  0.40  0.39  0.40  0.38  0.41  0.37  0.40  0.36  0.38  0.41
  8.72  8.30  8.90  8.59  8.25  8.02  8.10  6.93  5.76  5.90  8.03  8.53
 18.22 15.06 25.14 24.23 36.21 27.62 36.52 32.91 30.29 17.53 19.74 17.80
  7.50 10.60 14.08 19.11 22.00 23.17 22.50 20.53 17.72 13.87  9.68  7.25
 -1.52 -0.33  1.48  3.63 14.54 18.81 20.84 20.18 16.46  4.70  1.72 -0.50
  3.87  3.98  4.16  3.93  3.49  2.81  2.44  2.39  2.88  3.00  3.42  3.67
