 .Wgn file Subbasin: 51 STATION NAME:11497 11/15/2017 12:00:00 AM ArcSWAT 2012.10_0.14
  LATITUDE =  34.82 LONGITUDE = -87.42
  ELEV [m] = 182.90
  RAIN_YRS =  31.00
 10.15 12.67 17.81 22.76 26.82 30.92 32.77 32.77 29.07 23.22 17.39 11.58
 -0.43  1.42  5.47  9.81 14.56 18.92 21.16 20.40 16.48  9.86  5.14  0.91
  6.17  6.51  5.91  5.19  3.86  3.03  2.83  3.26  3.97  4.75  5.50  6.14
  5.95  5.58  5.19  4.98  4.02  2.69  1.93  2.67  4.35  5.35  5.59  6.06
 105.8 117.6 130.2 111.5 131.9 120.0 102.3  78.1  97.0  79.2 123.3 145.4
 13.83 18.28 18.18 16.14 17.01 16.84 14.50 15.74 17.55 14.51 16.89 20.25
  1.65  3.06  2.75  3.23  1.79  3.04  2.31  2.47  1.95  2.52  1.89  2.66
  0.22  0.26  0.24  0.23  0.23  0.24  0.22  0.14  0.17  0.15  0.21  0.22
  0.38  0.40  0.37  0.37  0.41  0.36  0.40  0.41  0.36  0.43  0.43  0.43
  8.24  8.51  8.50  7.98  8.75  8.29  8.20  6.09  6.18  6.36  7.99  8.56
 18.80 16.71 28.16 23.02 38.73 25.29 35.99 37.75 29.97 18.67 23.65 21.35
  7.50 10.56 13.95 18.81 21.83 23.17 22.67 20.57 17.51 13.87  9.76  7.12
 -2.20 -0.04  1.59  9.68 14.54 18.81 20.84 20.18 16.46 10.77  1.55 -0.70
  3.24  3.23  3.45  3.32  2.77  2.08  1.80  1.73  2.19  2.22  2.64  3.03
