 .Sol file Watershed HRU:3846 Subbasin:54 HRU:12 Luse:CORN Soil: MS223 Slope: 5-9999 11/15/2017 12:00:00 AM ArcSWAT 2012.10_0.14
 Soil Name: BIBB
 Soil Hydrologic Group: D
 Maximum rooting depth(m) : 1524.00
 Porosity fraction from which anions are excluded: 0.500
 Crack volume potential of soil: 0.500
 Texture 1                : SL-SL
 Depth                [mm]:      304.80     1524.00
 Bulk Density Moist [g/cc]:        1.60        1.60
 Ave. AW Incl. Rock Frag  :        0.28        0.21
 Ksat. (est.)      [mm/hr]:       27.75       25.59
 Organic Carbon [weight %]:        1.16        0.44
 Clay           [weight %]:       10.00       10.00
 Silt           [weight %]:       23.44       23.44
 Sand           [weight %]:       66.56       66.56
 Rock Fragments   [vol. %]:        4.59       10.00
 Soil Albedo (Moist)      :        0.02        0.10
 Erosion K                :        0.03        0.05
 Salinity (EC, Form 5)    :        0.00        0.00
 Soil pH                  :        0.00        0.00
 Soil CACO3               :        0.00        0.00
                              
