 .Wgn file Subbasin: 52 STATION NAME:407459 11/15/2017 12:00:00 AM ArcSWAT 2012.10_0.14
  LATITUDE =  35.18 LONGITUDE = -87.05
  ELEV [m] = 193.20
  RAIN_YRS =  31.00
  9.83 12.43 17.40 22.31 26.44 30.26 32.01 31.98 28.85 23.01 16.95 11.28
 -1.93 -0.37  3.48  7.77 12.76 17.39 19.74 19.05 14.89  8.25  3.34 -0.64
  6.22  6.62  6.09  5.21  3.71  3.10  2.69  3.02  3.79  4.58  5.60  6.17
  6.36  6.08  5.79  5.39  4.61  3.11  2.32  2.63  4.63  5.71  5.99  6.48
 115.4 125.7 139.8 114.6 120.6 112.5 115.3  94.3 110.0  91.5 126.1 145.7
 16.07 17.44 17.67 13.61 16.09 14.34 14.16 16.16 18.60 17.50 16.46 18.25
  3.71  3.06  2.61  2.09  2.53  2.13  1.80  2.10  1.85  3.95  2.31  2.29
  0.21  0.25  0.24  0.25  0.23  0.21  0.23  0.17  0.17  0.16  0.22  0.23
  0.44  0.43  0.39  0.39  0.42  0.46  0.42  0.39  0.38  0.40  0.40  0.46
  8.48  8.45  8.73  8.60  8.67  8.57  8.87  6.87  6.37  6.57  8.10  9.21
 17.76 16.05 25.78 22.97 39.23 26.42 48.19 37.02 29.42 18.37 24.15 19.60
  8.00 10.98 14.25 19.27 22.25 23.21 22.71 20.82 17.89 14.25 10.10  7.54
 -2.20 -0.04  1.59  3.15  6.17 18.81 20.84 20.18 16.46  4.34  1.55 -0.70
  3.24  3.23  3.45  3.32  2.77  2.08  1.80  1.73  2.19  2.22  2.64  3.03
